Version 4
SHEET 1 2156 920
WIRE -1040 -320 -1072 -320
WIRE -640 -320 -960 -320
WIRE -352 -320 -640 -320
WIRE -208 -320 -256 -320
WIRE -112 -320 -208 -320
WIRE -32 -320 -112 -320
WIRE 48 -320 -32 -320
WIRE 160 -320 48 -320
WIRE -208 -272 -208 -320
WIRE -272 -224 -272 -272
WIRE -1168 -208 -1248 -208
WIRE -432 -208 -1168 -208
WIRE -272 -192 -272 -224
WIRE -208 -192 -208 -208
WIRE -208 -192 -272 -192
WIRE -640 -160 -640 -320
WIRE -640 -160 -928 -160
WIRE -272 -160 -272 -192
WIRE -208 -160 -208 -192
WIRE -640 -112 -640 -160
WIRE 48 -96 48 -320
WIRE -928 -48 -928 -160
WIRE -800 -48 -928 -48
WIRE -432 -48 -432 -208
WIRE -432 -48 -480 -48
WIRE -272 -48 -272 -80
WIRE -208 -48 -208 -96
WIRE -208 -48 -272 -48
WIRE -1072 32 -1072 -320
WIRE 48 32 48 -16
WIRE 160 32 160 -320
WIRE -928 48 -928 -48
WIRE -800 48 -928 48
WIRE -272 48 -272 -48
WIRE -272 48 -480 48
WIRE -32 144 -32 -320
WIRE -32 144 -480 144
WIRE -800 240 -960 240
WIRE -1248 272 -1248 -208
WIRE -1248 272 -1344 272
WIRE -1248 288 -1248 272
WIRE -800 336 -848 336
WIRE -448 336 -480 336
WIRE -960 368 -960 240
WIRE -1344 384 -1344 272
WIRE -1344 480 -1344 448
WIRE -1248 480 -1248 448
WIRE -1248 480 -1344 480
WIRE -1072 480 -1072 112
WIRE -1072 480 -1248 480
WIRE -960 480 -960 448
WIRE -960 480 -1072 480
WIRE -848 480 -848 336
WIRE -848 480 -960 480
WIRE -640 480 -640 400
WIRE -640 480 -848 480
WIRE -448 480 -448 336
WIRE -448 480 -640 480
WIRE 48 480 48 96
WIRE 48 480 -448 480
WIRE 160 480 160 112
WIRE 160 480 48 480
WIRE -1072 512 -1072 480
FLAG -1072 512 0
FLAG -112 -320 out
FLAG -272 -224 vgate
FLAG -1168 -208 vboost
SYMBOL voltage -1072 16 R0
WINDOW 123 0 0 Left 0
WINDOW 39 0 0 Left 0
SYMATTR InstName Vpsrc
SYMATTR Value 12
SYMBOL res -944 -336 R90
WINDOW 0 0 56 VBottom 2
WINDOW 3 32 56 VTop 2
SYMATTR InstName R6
SYMATTR Value 0.01
SYMBOL res -288 -176 R0
WINDOW 0 -45 33 Left 2
WINDOW 3 -73 60 Left 2
SYMATTR InstName R7
SYMATTR Value 200K
SYMBOL nmos -352 -272 R270
WINDOW 0 107 34 VRight 2
WINDOW 3 77 15 VRight 2
SYMATTR InstName M2
SYMATTR Value AOTL66608
SYMBOL cap 32 32 R0
SYMATTR InstName C2
SYMATTR Value 600µ
SYMBOL res 144 16 R0
SYMATTR InstName RLoad
SYMATTR Value 1
SYMBOL res 32 -112 R0
SYMATTR InstName R2
SYMATTR Value 0.01
SYMBOL schottky -224 -160 R0
WINDOW 0 43 5 Left 2
WINDOW 3 41 31 Left 2
SYMATTR InstName D1
SYMATTR Value MBRS140
SYMATTR Description Diode
SYMATTR Type diode
SYMBOL voltage -1248 352 R0
WINDOW 123 0 0 Left 0
WINDOW 39 0 0 Left 0
WINDOW 0 41 49 Left 2
WINDOW 3 46 76 Left 2
SYMATTR InstName Vboost
SYMATTR Value 44
SYMBOL voltage -960 352 R0
WINDOW 123 0 0 Left 0
WINDOW 39 0 0 Left 0
WINDOW 0 18 107 Left 2
WINDOW 3 -21 150 Left 2
SYMATTR InstName V4
SYMATTR Value PULSE(0 5 10m 10n 10n 200m 1 1)
SYMBOL res -1264 272 R0
WINDOW 0 51 40 Left 2
WINDOW 3 55 64 Left 2
SYMATTR InstName R4
SYMATTR Value 2K
SYMBOL cap -1360 384 R0
SYMATTR InstName C3
SYMATTR Value 10µ
SYMBOL zener -224 -272 R0
WINDOW 0 48 -28 Left 2
WINDOW 3 49 -4 Left 2
SYMATTR InstName D4
SYMATTR Value BZX84B12VL
SYMBOL PowerProducts\\LTC7060 -640 144 R0
SYMATTR InstName U1
TEXT -48 512 Left 2 !.tran 300m
