Version 4
SHEET 1 2680 1300
WIRE 256 -160 -176 -160
WIRE 576 -160 256 -160
WIRE 656 -160 576 -160
WIRE 800 -160 720 -160
WIRE -176 -128 -176 -160
WIRE 800 -128 800 -160
WIRE 384 -112 -64 -112
WIRE 432 -112 384 -112
WIRE -64 -80 -64 -112
WIRE 656 -80 656 -160
WIRE 432 -64 432 -112
WIRE 720 -64 720 -160
WIRE -976 0 -1024 0
WIRE -880 0 -896 0
WIRE -768 0 -880 0
WIRE -688 0 -768 0
WIRE -592 0 -688 0
WIRE -512 0 -592 0
WIRE -432 0 -512 0
WIRE -352 0 -432 0
WIRE -272 0 -352 0
WIRE 128 0 -272 0
WIRE 128 16 128 0
WIRE 256 16 256 -160
WIRE 384 16 384 -112
WIRE -880 48 -880 0
WIRE -768 48 -768 0
WIRE -688 48 -688 0
WIRE -592 48 -592 0
WIRE -512 48 -512 0
WIRE -432 48 -432 0
WIRE -352 48 -352 0
WIRE -1024 64 -1024 0
WIRE -272 64 -272 0
WIRE -160 64 -272 64
WIRE -64 64 -64 -16
WIRE -64 64 -80 64
WIRE -32 64 -64 64
WIRE 720 64 720 0
WIRE 720 64 544 64
WIRE 800 64 720 64
WIRE 912 64 880 64
WIRE -1024 96 -1024 64
WIRE -176 128 -176 -48
WIRE -32 144 -48 144
WIRE 720 144 544 144
WIRE 800 144 720 144
WIRE 1232 144 880 144
WIRE -1024 208 -1024 176
WIRE -880 208 -880 112
WIRE -880 208 -1024 208
WIRE -768 208 -768 112
WIRE -768 208 -880 208
WIRE -688 208 -688 112
WIRE -688 208 -768 208
WIRE -592 208 -592 112
WIRE -592 208 -688 208
WIRE -512 208 -512 112
WIRE -512 208 -592 208
WIRE -432 208 -432 112
WIRE -432 208 -512 208
WIRE -352 208 -352 112
WIRE -352 208 -432 208
WIRE -32 224 -48 224
WIRE 720 224 720 208
WIRE 720 224 544 224
WIRE 800 224 720 224
WIRE 912 224 912 64
WIRE 912 224 880 224
WIRE -1024 240 -1024 208
WIRE 656 240 656 0
WIRE -272 304 -272 64
WIRE -176 304 -176 192
WIRE -32 304 -176 304
WIRE 656 304 544 304
WIRE 912 304 912 224
WIRE 912 304 880 304
WIRE 960 304 912 304
WIRE 1024 304 960 304
WIRE 1088 304 1024 304
WIRE 1136 304 1088 304
WIRE 1232 304 1232 144
WIRE 1232 304 1216 304
WIRE 1280 304 1232 304
WIRE 1360 304 1280 304
WIRE 1440 304 1360 304
WIRE 1504 304 1440 304
WIRE 1568 304 1504 304
WIRE 1632 304 1568 304
WIRE 1680 304 1632 304
WIRE 1744 304 1680 304
WIRE 1744 320 1744 304
WIRE 960 336 960 304
WIRE 1024 336 1024 304
WIRE 1088 336 1088 304
WIRE 1280 336 1280 304
WIRE 1360 336 1360 304
WIRE 1440 336 1440 304
WIRE 1504 336 1504 304
WIRE 1568 336 1568 304
WIRE 1632 336 1632 304
WIRE -128 384 -224 384
WIRE -32 384 -48 384
WIRE 704 384 544 384
WIRE 832 384 784 384
WIRE 960 432 960 400
WIRE 1024 432 1024 400
WIRE 1024 432 960 432
WIRE 1088 432 1088 400
WIRE 1088 432 1024 432
WIRE 1280 432 1280 400
WIRE 1280 432 1088 432
WIRE 1360 432 1360 400
WIRE 1360 432 1280 432
WIRE 1440 432 1440 400
WIRE 1440 432 1360 432
WIRE 1504 432 1504 400
WIRE 1504 432 1440 432
WIRE 1568 432 1568 400
WIRE 1568 432 1504 432
WIRE 1632 432 1632 400
WIRE 1632 432 1568 432
WIRE 1744 432 1744 400
WIRE 1744 432 1632 432
WIRE -272 464 -272 400
WIRE -272 464 -528 464
WIRE -176 464 -176 368
WIRE -176 464 -272 464
WIRE -32 464 -176 464
WIRE 656 464 656 368
WIRE 656 464 544 464
WIRE 880 464 880 400
WIRE 880 464 656 464
WIRE 1056 464 880 464
WIRE 1744 464 1744 432
WIRE -176 544 -224 544
WIRE -32 544 -96 544
WIRE 608 544 544 544
WIRE 832 544 688 544
WIRE 1232 576 1232 304
WIRE -32 624 -48 624
WIRE 576 624 576 -160
WIRE 576 624 544 624
WIRE -160 704 -224 704
WIRE -32 704 -96 704
WIRE 560 704 544 704
WIRE 656 704 640 704
WIRE -208 784 -224 784
WIRE -112 784 -128 784
WIRE -32 784 -48 784
WIRE 1232 784 1232 656
WIRE 1232 784 544 784
WIRE 1232 816 1232 784
WIRE 64 848 64 832
WIRE 448 848 448 832
WIRE -208 864 -208 784
WIRE -176 864 -208 864
WIRE -48 864 -48 784
WIRE -48 864 -112 864
WIRE 192 880 192 832
WIRE 224 880 192 880
WIRE 320 880 320 832
WIRE 320 880 288 880
WIRE 528 880 320 880
WIRE 192 928 192 880
WIRE 528 944 528 880
WIRE 192 1072 192 1008
WIRE 224 1072 192 1072
WIRE 368 1072 304 1072
WIRE 528 1072 528 1024
WIRE 528 1072 448 1072
WIRE 592 1072 528 1072
WIRE -272 1136 -272 560
WIRE 192 1136 192 1072
WIRE 192 1136 -272 1136
WIRE 880 1136 192 1136
WIRE 880 1136 880 560
WIRE -528 1184 -528 464
WIRE -112 1184 -528 1184
WIRE 0 1184 -112 1184
WIRE 272 1184 80 1184
WIRE 448 1184 352 1184
WIRE 1056 1184 1056 464
WIRE 1056 1184 448 1184
WIRE -112 1200 -112 1184
WIRE 448 1200 448 1184
WIRE 448 1264 -112 1264
WIRE 448 1280 448 1264
FLAG -1024 240 0
FLAG 1232 896 0
FLAG 592 1072 0
FLAG 448 848 0
FLAG -224 704 0
FLAG -224 784 0
FLAG 64 848 0
FLAG 656 704 0
FLAG -1024 64 IN
FLAG 1744 464 0
FLAG -48 624 0
FLAG 432 -64 0
FLAG 800 -128 0
FLAG 1680 304 Out
FLAG 448 1280 0
SYMBOL nmos -224 304 M0
WINDOW 3 283 143 Right 2
WINDOW 0 104 34 Right 2
SYMATTR Value BSC022N04LS6_L0
SYMATTR InstName Q1
SYMATTR Prefix X
SYMBOL schottky 640 240 R0
WINDOW 0 56 18 Left 2
WINDOW 3 55 44 Left 2
SYMATTR InstName D1
SYMATTR Value CMDSH05-45
SYMATTR Description Diode
SYMATTR Type diode
SYMBOL cap 656 -144 R270
WINDOW 0 32 32 VTop 2
WINDOW 3 0 32 VBottom 2
SYMATTR InstName C1
SYMATTR Value 10µ
SYMBOL nmos 832 304 R0
WINDOW 3 42 129 Right 2
WINDOW 0 18 101 Right 2
SYMATTR Value BSC022N04LS6_L0
SYMATTR InstName Q2
SYMATTR Prefix X
SYMBOL nmos 832 464 R0
WINDOW 3 40 143 Right 2
WINDOW 0 21 107 Right 2
SYMATTR Value BSC022N04LS6_L0
SYMATTR InstName Q3
SYMATTR Prefix X
SYMBOL voltage -1024 80 R0
WINDOW 0 44 165 Left 2
WINDOW 3 39 190 Left 2
WINDOW 123 0 0 Left 0
WINDOW 39 0 0 Left 0
SYMATTR InstName Vsrc
SYMATTR Value PWL(0 0 0.1m 24 1 24)
SYMBOL res 1216 800 R0
SYMATTR InstName Rrefl
SYMATTR Value 6.04K
SYMBOL res 1216 560 R0
SYMATTR InstName Rrefu
SYMATTR Value 220K
SYMBOL res 208 1088 R270
WINDOW 0 32 56 VTop 2
WINDOW 3 0 56 VBottom 2
SYMATTR InstName R3
SYMATTR Value 5m
SYMBOL cap -192 304 R0
WINDOW 0 -36 -41 Left 2
WINDOW 3 -41 -14 Left 2
SYMATTR InstName CB1
SYMATTR Value .22µ
SYMATTR SpiceLine Lser=1n
SYMBOL cap 640 304 R0
WINDOW 0 -48 14 Left 2
WINDOW 3 -44 50 Left 2
SYMATTR InstName CB2
SYMATTR Value .22µ
SYMATTR SpiceLine Rser=1n
SYMBOL cap -96 688 R90
WINDOW 0 0 32 VBottom 2
WINDOW 3 32 32 VTop 2
SYMATTR InstName Css
SYMATTR Value .001µ
SYMBOL cap -48 768 R90
WINDOW 0 0 32 VBottom 2
WINDOW 3 32 32 VTop 2
SYMATTR InstName Cth
SYMATTR Value 10n
SYMBOL res -112 768 R90
WINDOW 0 0 56 VBottom 2
WINDOW 3 32 56 VTop 2
SYMATTR InstName Rth
SYMATTR Value 27K
SYMBOL nmos -224 464 M0
WINDOW 3 274 111 Right 2
WINDOW 0 95 75 Right 2
SYMATTR Value BSC022N04LS6_L0
SYMATTR InstName Q4
SYMATTR Prefix X
SYMBOL ind -16 1200 R270
WINDOW 0 32 56 VTop 2
WINDOW 3 5 56 VBottom 2
SYMATTR InstName L1
SYMATTR Value 2.6µ
SYMBOL PowerProducts\\LTC3789 256 416 R0
SYMATTR InstName U1
SYMBOL res 1120 320 R270
WINDOW 0 63 54 VTop 2
WINDOW 3 64 56 VBottom 2
SYMATTR InstName Rshnt
SYMATTR Value 5m
SYMBOL res 544 720 R270
WINDOW 0 32 56 VTop 2
WINDOW 3 0 56 VBottom 2
SYMATTR InstName Rfreq
SYMATTR Value 46.4K
SYMBOL cap 1264 336 R0
SYMATTR InstName CO4
SYMATTR Value 470µ
SYMATTR SpiceLine Rser=22m Lser=5n
SYMBOL res 896 128 R90
WINDOW 0 -19 57 VBottom 2
WINDOW 3 -25 55 VTop 2
SYMATTR InstName RS3
SYMATTR Value 100
SYMBOL res 896 208 R90
WINDOW 0 -24 56 VBottom 2
WINDOW 3 -28 58 VTop 2
SYMATTR InstName RS4
SYMATTR Value 100
SYMBOL cap 704 144 R0
WINDOW 0 37 20 Left 2
WINDOW 3 33 50 Left 2
SYMATTR InstName CS2
SYMATTR Value 1µ
SYMBOL res 1728 304 R0
SYMATTR InstName Rload
SYMATTR Value 3
SYMBOL cap -112 848 R90
WINDOW 0 0 32 VBottom 2
WINDOW 3 32 32 VTop 2
SYMATTR InstName Cthp
SYMATTR Value 33p
SYMBOL cap -896 48 R0
SYMATTR InstName CI1
SYMATTR Value 470µ
SYMATTR SpiceLine Rser=22m Lser=5n
SYMBOL cap -448 48 R0
SYMATTR InstName CI6
SYMATTR Value 10µ
SYMATTR SpiceLine Rser=2m Lser=1n
SYMBOL cap -368 48 R0
SYMATTR InstName CI7
SYMATTR Value 10µ
SYMATTR SpiceLine Rser=2m Lser=1n
SYMBOL cap -528 48 R0
SYMATTR InstName CI5
SYMATTR Value 10µ
SYMATTR SpiceLine Rser=2m Lser=1n
SYMBOL cap -608 48 R0
SYMATTR InstName CI4
SYMATTR Value 10µ
SYMATTR SpiceLine Rser=2m Lser=1n
SYMBOL cap -704 48 R0
SYMATTR InstName CI3
SYMATTR Value 10µ
SYMATTR SpiceLine Rser=2m Lser=1n
SYMBOL cap -784 48 R0
SYMATTR InstName CI2
SYMATTR Value 470µ
SYMATTR SpiceLine Rser=22m Lser=5n
SYMBOL cap 1008 336 R0
WINDOW 3 22 52 Left 2
SYMATTR InstName CO2
SYMATTR Value 10µ
SYMATTR SpiceLine Rser=2m Lser=1n
SYMBOL cap 1072 336 R0
WINDOW 3 26 51 Left 2
SYMATTR InstName CO3
SYMATTR Value 10µ
SYMATTR SpiceLine Rser=2m Lser=1n
SYMBOL cap 1424 336 R0
SYMATTR InstName CO6
SYMATTR Value 10µ
SYMATTR SpiceLine Rser=2m Lser=1n
SYMBOL cap 1488 336 R0
SYMATTR InstName CO7
SYMATTR Value 10µ
SYMATTR SpiceLine Rser=2m Lser=1n
SYMBOL cap 1552 336 R0
SYMATTR InstName CO8
SYMATTR Value 10µ
SYMATTR SpiceLine Rser=2m Lser=1n
SYMBOL cap 1344 336 R0
SYMATTR InstName CO5
SYMATTR Value 470µ
SYMATTR SpiceLine Rser=22m Lser=5n
SYMBOL cap 1616 336 R0
SYMATTR InstName CO9
SYMATTR Value 10µ
SYMATTR SpiceLine Rser=2m Lser=1n
SYMBOL res 512 928 R0
SYMATTR InstName RS2
SYMATTR Value 1K
SYMBOL res 176 912 R0
SYMATTR InstName RS1
SYMATTR Value 1K
SYMBOL cap 288 864 R90
WINDOW 0 0 32 VBottom 2
WINDOW 3 32 32 VTop 2
SYMATTR InstName CS1
SYMATTR Value 33p
SYMBOL res 896 48 R90
WINDOW 0 -21 59 VBottom 2
WINDOW 3 -27 61 VTop 2
SYMATTR InstName Routsns
SYMATTR Value 100
SYMBOL cap 704 -64 R0
WINDOW 0 37 20 Left 2
WINDOW 3 33 50 Left 2
SYMATTR InstName Coutsns
SYMATTR Value 0.1µ
SYMBOL res -880 -16 R90
WINDOW 0 0 56 VBottom 2
WINDOW 3 32 56 VTop 2
SYMATTR InstName Rsrc
SYMATTR Value 0.0001
SYMBOL cap -80 -80 R0
WINDOW 0 37 20 Left 2
WINDOW 3 33 50 Left 2
SYMATTR InstName C26
SYMATTR Value 0.1µ
SYMBOL res -64 48 R90
WINDOW 0 0 56 VBottom 2
WINDOW 3 32 56 VTop 2
SYMATTR InstName Rinsns
SYMATTR Value 100
SYMBOL schottky -192 128 R0
WINDOW 0 49 37 Left 2
WINDOW 3 -2 71 Left 2
SYMATTR InstName D2
SYMATTR Value CMDSH05-45
SYMATTR Description Diode
SYMATTR Type diode
SYMBOL res 256 1200 R270
WINDOW 0 32 56 VTop 2
WINDOW 3 0 56 VBottom 2
SYMATTR InstName R_L1
SYMATTR Value 1.58m
SYMBOL cap 976 400 R180
WINDOW 0 -36 55 Left 2
WINDOW 3 -33 12 Left 2
SYMATTR InstName CO1
SYMATTR Value 10µ
SYMATTR SpiceLine Rser=2m Lser=1n
SYMBOL ind 352 1088 R270
WINDOW 0 32 56 VTop 2
WINDOW 3 5 56 VBottom 2
SYMATTR InstName L_R3
SYMATTR Value 0.2n
SYMBOL cap 432 1200 R0
WINDOW 0 37 20 Left 2
WINDOW 3 33 50 Left 2
SYMATTR InstName Cg1
SYMATTR Value 20p
SYMBOL cap -128 1200 R0
WINDOW 0 37 20 Left 2
WINDOW 3 33 50 Left 2
SYMATTR InstName Cg2
SYMATTR Value 20p
SYMBOL ind -192 -144 R0
SYMATTR InstName L_D2
SYMATTR Value 2n
SYMBOL ind 672 16 R180
WINDOW 0 36 80 Left 2
WINDOW 3 36 40 Left 2
SYMATTR InstName L_D1
SYMATTR Value 2n
SYMBOL ind 592 560 R270
WINDOW 0 56 55 VTop 2
WINDOW 3 60 53 VBottom 2
SYMATTR InstName L_Q3g
SYMATTR Value 10n
SYMBOL ind 688 400 R270
WINDOW 0 57 53 VTop 2
WINDOW 3 59 56 VBottom 2
SYMATTR InstName L_Q2g
SYMATTR Value 10n
SYMBOL ind -192 560 R270
WINDOW 0 57 56 VTop 2
WINDOW 3 60 55 VBottom 2
SYMATTR InstName L_Q4g
SYMATTR Value 10n
SYMBOL ind -144 400 R270
WINDOW 0 57 53 VTop 2
WINDOW 3 60 51 VBottom 2
SYMATTR InstName L_Q1g
SYMATTR Value 10n
TEXT 1256 1000 Left 2 !.tran 20m
TEXT 1256 960 Left 2 !.inc OptiMOS6_40V_LTSpice.lib
TEXT 1256 928 Left 2 !.inc CMDSH05-45.LIB
TEXT 1256 1040 Left 2 !.OPTIONS reltol=.001 abstol=1nA trtol=1.0 ststdelay=19ms
