Version 4
SHEET 1 1940 680
WIRE 480 -224 320 -224
WIRE 688 -224 544 -224
WIRE -224 -208 -400 -208
WIRE 144 -208 -224 -208
WIRE 192 -208 144 -208
WIRE 368 -208 256 -208
WIRE 48 -96 16 -96
WIRE 144 -96 144 -208
WIRE 144 -96 128 -96
WIRE 192 -96 144 -96
WIRE 320 -96 320 -224
WIRE 320 -96 272 -96
WIRE 400 -96 320 -96
WIRE 528 -96 464 -96
WIRE 576 -96 528 -96
WIRE 688 -96 688 -224
WIRE 688 -96 640 -96
WIRE 752 -96 688 -96
WIRE 864 -96 816 -96
WIRE 976 -96 864 -96
WIRE 1024 -96 976 -96
WIRE 1200 -96 1024 -96
WIRE 1344 -96 1200 -96
WIRE -400 -80 -400 -208
WIRE 16 -16 16 -96
WIRE 144 -16 144 -96
WIRE 528 16 528 -96
WIRE 576 16 528 16
WIRE 864 16 864 -96
WIRE 864 16 640 16
WIRE -400 32 -400 0
WIRE 976 32 976 -96
WIRE -224 48 -224 -208
WIRE 320 48 320 -96
WIRE 320 48 224 48
WIRE 1344 80 1344 -96
WIRE 1200 112 1200 -96
WIRE 368 128 368 -208
WIRE 368 128 224 128
WIRE 976 144 976 112
WIRE 976 144 752 144
WIRE 976 192 976 144
WIRE 288 208 224 208
WIRE 368 224 368 128
WIRE 752 224 752 144
WIRE 752 224 368 224
WIRE -400 288 -400 112
WIRE -224 288 -224 112
WIRE -224 288 -400 288
WIRE 80 288 80 272
WIRE 80 288 -224 288
WIRE 288 288 288 208
WIRE 288 288 80 288
WIRE 976 288 976 272
WIRE 976 288 288 288
WIRE 1200 288 1200 176
WIRE 1200 288 976 288
WIRE 1344 288 1344 160
WIRE 1344 288 1200 288
WIRE 80 320 80 288
FLAG 80 320 0
FLAG 1024 -96 out
SYMBOL PowerProducts\\LT1107 80 128 R0
SYMATTR InstName U1
SYMBOL ind 176 -80 R270
WINDOW 0 32 56 VTop 2
WINDOW 3 5 56 VBottom 2
SYMATTR InstName L1
SYMATTR Value 47µ
SYMBOL res 144 -112 R90
WINDOW 0 0 56 VBottom 2
WINDOW 3 32 56 VTop 2
SYMATTR InstName R1
SYMATTR Value 1
SYMBOL schottky 400 -80 R270
WINDOW 0 32 32 VTop 2
WINDOW 3 0 32 VBottom 2
SYMATTR InstName D1
SYMATTR Value RB160M-90
SYMATTR Description Diode
SYMATTR Type diode
SYMBOL schottky 576 -80 R270
WINDOW 0 32 32 VTop 2
WINDOW 3 0 32 VBottom 2
SYMATTR InstName D2
SYMATTR Value RB160M-90
SYMATTR Description Diode
SYMATTR Type diode
SYMBOL schottky 752 -80 R270
WINDOW 0 32 32 VTop 2
WINDOW 3 0 32 VBottom 2
SYMATTR InstName D3
SYMATTR Value RB160M-90
SYMATTR Description Diode
SYMATTR Type diode
SYMBOL cap 544 -240 R90
WINDOW 0 0 32 VBottom 2
WINDOW 3 32 32 VTop 2
SYMATTR InstName C1
SYMATTR Value 100n
SYMBOL cap 640 0 R90
WINDOW 0 0 32 VBottom 2
WINDOW 3 32 32 VTop 2
SYMATTR InstName C2
SYMATTR Value 100n
SYMBOL res 960 16 R0
SYMATTR InstName R2
SYMATTR Value 3600K
SYMBOL res 960 176 R0
SYMATTR InstName R3
SYMATTR Value 100K
SYMBOL cap 1184 112 R0
SYMATTR InstName C5
SYMATTR Value 10µ
SYMBOL schottky 256 -224 R90
WINDOW 0 0 32 VBottom 2
WINDOW 3 32 32 VTop 2
SYMATTR InstName D5
SYMATTR Value RB160M-90
SYMATTR Description Diode
SYMATTR Type diode
SYMBOL cap -240 48 R0
SYMATTR InstName C6
SYMATTR Value 47µ
SYMBOL voltage -400 16 R0
WINDOW 123 0 0 Left 0
WINDOW 39 0 0 Left 0
SYMATTR InstName V1
SYMATTR Value 5
SYMBOL res -416 -96 R0
SYMATTR InstName R4
SYMATTR Value 1
SYMBOL res 1328 64 R0
SYMATTR InstName R5
SYMATTR Value 2K
TEXT -384 320 Left 2 !.tran 100m
